Infrared Spectrum: METHANE
Formula: C H4
CAS: 74-82-8
State: GAS (150 mmHg DILUTED TO A TOTAL PRESSURE OF 600 mmHg WITH N2)
Class: COBLENTZ
Instrument: DOW KBr FOREPRISM
Instrument parameters: GRATING CHANGED AT 5.0, 7.5, 15.0 MICRON
Sampling: TRANSMISSION
Path length: 5 CM
Resolution: 4
Origin: DOW CHEMICAL COMPANY
1/CM	TRANSMITTANCE
449.47	0.953
457.892	0.953
466.313	0.953
474.735	0.955
483.157	0.955
491.579	0.952
500	0.952
508.422	0.949
516.844	0.948
525.266	0.948
533.687	0.949
542.109	0.949
550.531	0.953
558.953	0.953
567.374	0.956
575.796	0.959
584.218	0.962
592.639	0.965
601.061	0.968
609.483	0.969
617.905	0.971
626.326	0.971
634.748	0.974
643.17	0.975
651.592	0.975
660.013	0.976
668.435	0.976
676.857	0.979
685.279	0.981
693.7	0.984
702.122	0.988
710.544	0.989
718.965	1.004
727.387	0.988
735.809	0.991
744.231	0.991
752.652	0.988
761.074	0.987
769.496	0.988
777.918	0.985
786.339	0.985
794.761	0.985
803.183	0.984
811.605	0.984
820.026	0.984
828.448	0.985
836.87	0.985
845.291	0.985
853.713	0.985
862.135	0.985
870.557	0.985
878.978	0.984
887.4	0.985
895.822	0.984
904.244	0.985
912.665	0.988
921.087	0.988
929.509	0.989
937.931	0.991
946.352	0.991
954.774	0.994
963.196	0.997
971.617	0.997
980.039	1.001
988.461	1.001
996.883	1.001
1005.3	1.001
1013.73	1.001
1022.15	1.004
1030.57	1.007
1038.99	1.002
1047.41	1.002
1055.83	1.002
1064.26	1
1072.68	0.997
1081.1	1.004
1089.52	1.001
1097.94	1.002
1106.37	1.004
1114.79	1.004
1123.21	1.004
1131.63	1.001
1140.05	0.992
1148.47	1
1156.9	1
1165.32	1
1173.74	0.995
1182.16	0.989
1190.58	0.974
1199	0.981
1207.43	0.994
1215.85	0.9401
1224.27	0.9319
1232.69	0.9878
1241.11	0.7592
1249.53	0.729
1257.96	0.89
1266.38	0.731
1274.8	0.8909
1283.22	0.6257
1291.64	0.818
1300.07	0.4841
1308.49	0.6351
1316.91	0.8211
1325.33	0.916
1333.75	0.445
1342.17	0.9069
1350.6	0.6823
1359.02	0.4648
1367.44	0.6591
1375.86	0.6775
1384.28	0.894
1392.7	0.971
1401.13	0.981
1409.55	0.984
1417.97	0.978
1426.39	0.982
1434.81	0.976
1443.23	0.981
1451.66	0.979
1460.08	0.981
1468.5	0.982
1476.92	0.985
1485.34	0.985
1493.76	0.987
1502.19	0.985
1510.61	0.988
1519.03	0.988
1527.45	0.991
1535.87	0.961
1544.3	0.965
1552.72	0.979
1561.14	0.984
1569.56	0.987
1577.98	0.985
1586.4	0.987
1594.83	0.987
1603.25	0.985
1611.67	0.981
1620.09	0.982
1628.51	0.985
1636.93	0.984
1645.36	0.979
1653.78	0.981
1662.2	0.984
1670.62	0.979
1679.04	0.982
1687.46	0.984
1695.89	0.979
1704.31	0.979
1712.73	0.978
1721.15	0.981
1729.57	0.978
1738	0.981
1746.42	0.981
1754.84	0.982
1763.26	0.982
1771.68	0.984
1780.1	0.984
1788.53	0.985
1796.95	0.985
1805.37	0.988
1813.79	0.988
1822.21	0.985
1830.63	0.985
1839.06	0.985
1847.48	0.985
1855.9	0.985
1864.32	0.987
1872.74	0.985
1881.16	0.987
1889.59	0.984
1898.01	0.984
1906.43	0.984
1914.85	0.982
1923.27	0.985
1931.7	0.982
1940.12	0.984
1948.54	0.982
1956.96	0.985
1965.38	0.987
1973.8	0.988
1982.23	0.988
1990.65	0.989
1999.07	0.991
2007.49	0.991
2015.91	0.991
2024.33	0.991
2032.76	0.991
2041.18	0.991
2049.6	0.9902
2058.02	0.989
2066.44	0.989
2074.86	0.989
2083.29	0.989
2091.71	0.989
2100.13	0.989
2108.55	0.989
2116.97	0.9887
2125.4	0.989
2133.82	0.988
2142.24	0.988
2150.66	0.988
2159.08	0.9888
2167.5	0.989
2175.93	0.991
2184.35	0.991
2192.77	0.9896
2201.19	0.991
2209.61	0.991
2218.03	0.991
2226.46	0.991
2234.88	0.991
2243.3	0.991
2251.72	0.991
2260.14	0.991
2268.56	0.991
2276.99	0.989
2285.41	0.9889
2293.83	0.987
2302.25	0.985
2310.67	0.982
2319.09	0.979
2327.52	0.9745
2335.94	0.971
2344.36	0.969
2352.78	0.971
2361.2	0.9769
2369.63	0.9838
2378.05	0.989
2386.47	0.992
2394.89	0.994
2403.31	0.994
2411.73	0.992
2420.16	0.991
2428.58	0.992
2437	0.992
2445.42	0.992
2453.84	0.992
2462.26	0.991
2470.69	0.9895
2479.11	0.988
2487.53	0.987
2495.95	0.9905
2504.37	0.989
2512.79	0.9882
2521.22	0.988
2529.64	0.989
2538.06	0.989
2546.48	0.9878
2554.9	0.987
2563.33	0.989
2571.75	0.991
2580.17	0.989
2588.59	0.988
2597.01	0.981
2605.43	0.9861
2613.86	0.987
2622.28	0.988
2630.7	0.984
2639.12	0.987
2647.54	0.984
2655.96	0.988
2664.39	0.984
2672.81	0.9816
2681.23	0.976
2689.65	0.9806
2698.07	0.9844
2706.49	0.9687
2714.92	0.9865
2723.34	0.9768
2731.76	0.987
2740.18	0.9454
2748.6	0.979
2757.03	0.961
2765.45	0.9611
2773.87	0.9596
2782.29	0.9673
2790.71	0.9494
2799.13	0.9552
2807.56	0.966
2815.98	0.932
2824.4	0.9129
2832.82	0.951
2841.24	0.9748
2849.66	0.9696
2858.09	0.939
2866.51	0.867
2874.93	0.8089
2883.35	0.7806
2891.77	0.942
2900.19	0.7947
2908.62	0.6775
2917.04	0.5195
2925.46	0.7039
2933.88	0.784
2942.3	0.9267
2950.72	0.669
2959.15	0.5291
2967.57	0.7124
2975.99	0.943
2984.41	0.834
2992.83	0.9354
3001.26	0.6792
3009.68	0.3421
3018.1	0.6267
3026.52	0.9336
3034.94	0.8738
3043.36	0.963
3051.79	0.6808
3060.21	0.5252
3068.63	0.5292
3077.05	0.917
3085.47	0.5075
3093.89	0.6406
3102.32	0.5716
3110.74	0.6742
3119.16	0.8615
3127.58	0.8234
3136	0.9664
3144.42	0.9782
3152.85	0.9809
3161.27	0.9874
3169.69	0.8878
3178.11	0.9787
3186.53	0.9845
3194.96	0.991
3203.38	0.995
3211.8	0.997
3220.22	0.9971
3228.64	0.998
3237.06	0.998
3245.49	0.998
3253.91	0.998
3262.33	0.998
3270.75	0.998
3279.17	0.998
3287.59	0.998
3296.02	0.998
3304.44	0.998
3312.86	0.998
3321.28	0.998
3329.7	0.998
3338.12	0.998
3346.55	1
3354.97	1
3363.39	1
3371.81	1
3380.23	0.998
3388.66	0.997
3397.08	0.995
3405.5	0.997
3413.92	0.998
3422.34	0.998
3430.76	0.998
3439.19	0.998
3447.61	0.998
3456.03	0.998
3464.45	1
3472.87	1
3481.29	1.001
3489.72	1.001
3498.14	1.001
3506.56	1.0003
3514.98	1
3523.4	1
3531.82	1
3540.25	1
3548.67	1
3557.09	0.998
3565.51	0.998
3573.93	0.998
3582.35	0.998
3590.78	0.998
3599.2	0.998
3607.62	0.998
3616.04	0.998
3624.46	0.998
3632.89	0.9999
3641.31	0.9989
3649.73	0.9981
3658.15	0.998
3666.57	0.998
3674.99	0.995
3683.42	0.9979
3691.84	1
3700.26	0.998
3708.68	1.001
3717.1	0.998
3725.52	0.9994
3733.95	1
3742.37	0.9986
3750.79	1.0018
3759.21	1.002
3767.63	1.002
3776.05	1.001
3784.48	1.001
3792.9	0.998
3801.32	0.997
